
#======================================================================
# CRYSTAL DATA
#----------------------------------------------------------------------
data_VESTA_phase_1

_chemical_name_common                  'global'
_cell_length_a                         6.871100
_cell_length_b                         7.316720
_cell_length_c                         28.925800
_cell_angle_alpha                      90.000000
_cell_angle_beta                       90.000000
_cell_angle_gamma                      90.000000
_cell_volume                           1454.213212
_space_group_name_H-M_alt              'P 1'
_space_group_IT_number                 1

loop_
_space_group_symop_operation_xyz
   'x, y, z'

loop_
   _atom_site_label
   _atom_site_occupancy
   _atom_site_fract_x
   _atom_site_fract_y
   _atom_site_fract_z
   _atom_site_adp_type
   _atom_site_U_iso_or_equiv
   _atom_site_type_symbol
   Li         1.0     0.499934     0.000000     0.001434    Uiso  ? Li
   Li         1.0     0.999934     0.000000     0.001434    Uiso  ? Li
   Li         1.0     0.499934     0.500000     0.001434    Uiso  ? Li
   Li         1.0     0.999934     0.500000     0.001434    Uiso  ? Li
   N          1.0     0.249937     0.000000     0.035719    Uiso  ? N
   N          1.0     0.749937     0.000000     0.035719    Uiso  ? N
   Li         1.0     0.249937     0.250000     0.035719    Uiso  ? Li
   Li         1.0     0.749937     0.250000     0.035719    Uiso  ? Li
   N          1.0     0.249937     0.500000     0.035719    Uiso  ? N
   N          1.0     0.749937     0.500000     0.035719    Uiso  ? N
   Li         1.0     0.249937     0.750000     0.035719    Uiso  ? Li
   Li         1.0     0.749937     0.750000     0.035719    Uiso  ? Li
   Li         1.0     0.499940     0.000000     0.070004    Uiso  ? Li
   Li         1.0     0.999940     0.000000     0.070004    Uiso  ? Li
   Li         1.0     0.499940     0.500000     0.070004    Uiso  ? Li
   Li         1.0     0.999940     0.500000     0.070004    Uiso  ? Li
   Li         1.0     0.249950     0.000000     0.104291    Uiso  ? Li
   Li         1.0     0.749950     0.000000     0.104291    Uiso  ? Li
   Li         1.0     0.249950     0.500000     0.104291    Uiso  ? Li
   Li         1.0     0.749950     0.500000     0.104291    Uiso  ? Li
   N          1.0     0.499952     0.000000     0.138576    Uiso  ? N
   N          1.0     0.999952     0.000000     0.138576    Uiso  ? N
   Li         1.0     0.499952     0.250000     0.138576    Uiso  ? Li
   Li         1.0     0.999952     0.250000     0.138576    Uiso  ? Li
   N          1.0     0.499952     0.500000     0.138576    Uiso  ? N
   N          1.0     0.999952     0.500000     0.138576    Uiso  ? N
   Li         1.0     0.499952     0.750000     0.138576    Uiso  ? Li
   Li         1.0     0.999952     0.750000     0.138576    Uiso  ? Li
   Li         1.0     0.249955     0.000000     0.172861    Uiso  ? Li
   Li         1.0     0.749955     0.000000     0.172861    Uiso  ? Li
   Li         1.0     0.249955     0.500000     0.172861    Uiso  ? Li
   Li         1.0     0.749955     0.500000     0.172861    Uiso  ? Li
   Li         1.0     0.499965     0.000000     0.207147    Uiso  ? Li
   Li         1.0     0.999965     0.000000     0.207147    Uiso  ? Li
   Li         1.0     0.499965     0.500000     0.207147    Uiso  ? Li
   Li         1.0     0.999965     0.500000     0.207147    Uiso  ? Li
   N          1.0     0.249967     0.000000     0.241433    Uiso  ? N
   N          1.0     0.749967     0.000000     0.241433    Uiso  ? N
   Li         1.0     0.249967     0.250000     0.241433    Uiso  ? Li
   Li         1.0     0.749967     0.250000     0.241433    Uiso  ? Li
   N          1.0     0.249967     0.500000     0.241433    Uiso  ? N
   N          1.0     0.749967     0.500000     0.241433    Uiso  ? N
   Li         1.0     0.249967     0.750000     0.241433    Uiso  ? Li
   Li         1.0     0.749967     0.750000     0.241433    Uiso  ? Li
   Li         1.0     0.499970     0.000000     0.275718    Uiso  ? Li
   Li         1.0     0.999970     0.000000     0.275718    Uiso  ? Li
   Li         1.0     0.499970     0.500000     0.275718    Uiso  ? Li
   Li         1.0     0.999970     0.500000     0.275718    Uiso  ? Li
   Li         1.0     0.249980     0.000000     0.310004    Uiso  ? Li
   Li         1.0     0.749980     0.000000     0.310004    Uiso  ? Li
   Li         1.0     0.249980     0.500000     0.310004    Uiso  ? Li
   Li         1.0     0.749980     0.500000     0.310004    Uiso  ? Li
   N          1.0     0.499982     0.000000     0.344289    Uiso  ? N
   N          1.0     0.999982     0.000000     0.344289    Uiso  ? N
   Li         1.0     0.499982     0.250000     0.344289    Uiso  ? Li
   Li         1.0     0.999982     0.250000     0.344289    Uiso  ? Li
   N          1.0     0.499982     0.500000     0.344289    Uiso  ? N
   N          1.0     0.999982     0.500000     0.344289    Uiso  ? N
   Li         1.0     0.499982     0.750000     0.344289    Uiso  ? Li
   Li         1.0     0.999982     0.750000     0.344289    Uiso  ? Li
   Li         1.0     0.249985     0.000000     0.378575    Uiso  ? Li
   Li         1.0     0.749985     0.000000     0.378575    Uiso  ? Li
   Li         1.0     0.249985     0.500000     0.378575    Uiso  ? Li
   Li         1.0     0.749985     0.500000     0.378575    Uiso  ? Li
   Li         1.0     0.499995     0.000000     0.412861    Uiso  ? Li
   Li         1.0     0.999995     0.000000     0.412861    Uiso  ? Li
   Li         1.0     0.499995     0.500000     0.412861    Uiso  ? Li
   Li         1.0     0.999995     0.500000     0.412861    Uiso  ? Li
   N          1.0     0.249997     0.000000     0.447146    Uiso  ? N
   N          1.0     0.749997     0.000000     0.447146    Uiso  ? N
   Li         1.0     0.249997     0.250000     0.447146    Uiso  ? Li
   Li         1.0     0.749997     0.250000     0.447146    Uiso  ? Li
   N          1.0     0.249997     0.500000     0.447146    Uiso  ? N
   N          1.0     0.749997     0.500000     0.447146    Uiso  ? N
   Li         1.0     0.249997     0.750000     0.447146    Uiso  ? Li
   Li         1.0     0.749997     0.750000     0.447146    Uiso  ? Li
   Li         1.0     0.000000     0.000000     0.481432    Uiso  ? Li
   Li         1.0     0.500000     0.000000     0.481432    Uiso  ? Li
   Li         1.0    -0.000000     0.500000     0.481432    Uiso  ? Li
   Li         1.0     0.500000     0.500000     0.481432    Uiso  ? Li
