
#======================================================================
# CRYSTAL DATA
#----------------------------------------------------------------------
data_VESTA_phase_1

_chemical_name_common                  'image0'
_cell_length_a                         6.871100
_cell_length_b                         7.316720
_cell_length_c                         28.925800
_cell_angle_alpha                      90.000000
_cell_angle_beta                       90.000000
_cell_angle_gamma                      90.000000
_cell_volume                           1454.213212
_space_group_name_H-M_alt              'P 1'
_space_group_IT_number                 1

loop_
_space_group_symop_operation_xyz
   'x, y, z'

loop_
   _atom_site_label
   _atom_site_occupancy
   _atom_site_fract_x
   _atom_site_fract_y
   _atom_site_fract_z
   _atom_site_adp_type
   _atom_site_U_iso_or_equiv
   _atom_site_type_symbol
   Li1        1.0     0.499960     0.000000     0.228130    Uiso  ? Li
   Li2        1.0     0.999960     0.000000     0.228150    Uiso  ? Li
   Li3        1.0     0.499960     0.500000     0.228130    Uiso  ? Li
   Li4        1.0     0.999960     0.500000     0.228150    Uiso  ? Li
   Li5        1.0     0.250060     0.250000     0.262180    Uiso  ? Li
   Li6        1.0     0.749860     0.250000     0.262180    Uiso  ? Li
   Li7        1.0     0.250060     0.750000     0.262180    Uiso  ? Li
   Li8        1.0     0.749860     0.750000     0.262180    Uiso  ? Li
   Li9        1.0     0.499960     0.000000     0.301420    Uiso  ? Li
   Li10       1.0     0.999960     0.000000     0.301400    Uiso  ? Li
   Li11       1.0     0.499960     0.500000     0.301420    Uiso  ? Li
   Li12       1.0     0.999960     0.500000     0.301400    Uiso  ? Li
   Li13       1.0     0.249960     0.000000     0.342260    Uiso  ? Li
   Li14       1.0     0.749960     0.000000     0.342260    Uiso  ? Li
   Li15       1.0     0.249960     0.500000     0.342260    Uiso  ? Li
   Li16       1.0     0.749960     0.500000     0.342260    Uiso  ? Li
   Li17       1.0     0.499960     0.250000     0.378920    Uiso  ? Li
   Li18       1.0     0.999960     0.250000     0.378930    Uiso  ? Li
   Li19       1.0     0.499960     0.750000     0.378920    Uiso  ? Li
   Li20       1.0     0.999960     0.750000     0.378930    Uiso  ? Li
   Li21       1.0     0.249970     0.000000     0.415100    Uiso  ? Li
   Li22       1.0     0.749960     0.000000     0.415100    Uiso  ? Li
   Li23       1.0     0.249970     0.500000     0.415100    Uiso  ? Li
   Li24       1.0     0.749960     0.500000     0.415100    Uiso  ? Li
   Li25       1.0     0.499970     0.000000     0.455660    Uiso  ? Li
   Li26       1.0     0.999970     0.000000     0.455680    Uiso  ? Li
   Li27       1.0     0.499970     0.500000     0.455660    Uiso  ? Li
   Li28       1.0     0.999970     0.500000     0.455680    Uiso  ? Li
   Li29       1.0     0.250100     0.250000     0.492100    Uiso  ? Li
   Li30       1.0     0.749840     0.250000     0.492100    Uiso  ? Li
   Li31       1.0     0.250100     0.750000     0.492100    Uiso  ? Li
   Li32       1.0     0.749840     0.750000     0.492100    Uiso  ? Li
   Li33       1.0     0.499970     0.000000     0.528440    Uiso  ? Li
   Li34       1.0     0.999970     0.000000     0.528430    Uiso  ? Li
   Li35       1.0     0.499970     0.500000     0.528440    Uiso  ? Li
   Li36       1.0     0.999970     0.500000     0.528430    Uiso  ? Li
   Li37       1.0     0.249980     0.000000     0.568720    Uiso  ? Li
   Li38       1.0     0.749970     0.000000     0.568720    Uiso  ? Li
   Li39       1.0     0.249980     0.500000     0.568720    Uiso  ? Li
   Li40       1.0     0.749970     0.500000     0.568720    Uiso  ? Li
   Li41       1.0     0.499970     0.250000     0.604890    Uiso  ? Li
   Li42       1.0     0.999980     0.250000     0.604880    Uiso  ? Li
   Li43       1.0     0.499970     0.750000     0.604890    Uiso  ? Li
   Li44       1.0     0.999980     0.750000     0.604880    Uiso  ? Li
   Li45       1.0     0.249980     0.000000     0.641370    Uiso  ? Li
   Li46       1.0     0.749970     0.000000     0.641370    Uiso  ? Li
   Li47       1.0     0.249980     0.500000     0.641370    Uiso  ? Li
   Li48       1.0     0.749970     0.500000     0.641370    Uiso  ? Li
   Li49       1.0     0.499980     0.000000     0.681510    Uiso  ? Li
   Li50       1.0     0.999980     0.000000     0.681530    Uiso  ? Li
   Li51       1.0     0.499980     0.500000     0.681510    Uiso  ? Li
   Li52       1.0     0.999980     0.500000     0.681530    Uiso  ? Li
   Li53       1.0     0.250080     0.250000     0.720720    Uiso  ? Li
   Li54       1.0     0.749880     0.250000     0.720720    Uiso  ? Li
   Li55       1.0     0.250080     0.750000     0.720720    Uiso  ? Li
   Li56       1.0     0.749880     0.750000     0.720720    Uiso  ? Li
   Li57       1.0     0.999980     0.000000     0.754670    Uiso  ? Li
   Li58       1.0     0.499980     0.000000     0.754690    Uiso  ? Li
   Li59       1.0     0.999980     0.500000     0.754670    Uiso  ? Li
   Li60       1.0     0.499980     0.500000     0.754690    Uiso  ? Li
   N1         1.0     0.250230     0.000000     0.265090    Uiso  ? N
   N2         1.0     0.749680     0.000000     0.265090    Uiso  ? N
   N3         1.0     0.250230     0.500000     0.265090    Uiso  ? N
   N4         1.0     0.749680     0.500000     0.265090    Uiso  ? N
   N5         1.0     0.499960     0.000000     0.378770    Uiso  ? N
   N6         1.0     0.999960     0.000000     0.378780    Uiso  ? N
   N7         1.0     0.499960     0.500000     0.378770    Uiso  ? N
   N8         1.0     0.999960     0.500000     0.378780    Uiso  ? N
   N9         1.0     0.250240     0.000000     0.492120    Uiso  ? N
   N10        1.0     0.749690     0.000000     0.492120    Uiso  ? N
   N11        1.0     0.250240     0.500000     0.492120    Uiso  ? N
   N12        1.0     0.749690     0.500000     0.492120    Uiso  ? N
   N13        1.0     0.499970     0.000000     0.604940    Uiso  ? N
   N14        1.0     0.999980     0.000000     0.604940    Uiso  ? N
   N15        1.0     0.499970     0.500000     0.604940    Uiso  ? N
   N16        1.0     0.999980     0.500000     0.604940    Uiso  ? N
   N17        1.0     0.250250     0.000000     0.717290    Uiso  ? N
   N18        1.0     0.749700     0.000000     0.717290    Uiso  ? N
   N19        1.0     0.250250     0.500000     0.717290    Uiso  ? N
   N20        1.0     0.749700     0.500000     0.717290    Uiso  ? N
   C80        1.0     0.775756     0.559536     0.796303    Uiso  ? Li
